<?xml version='1.0' encoding='utf-8'?>
<!DOCTYPE network SYSTEM "http://www.matsim.org/files/dtd/network_v2.dtd">
<network>
  <attributes>
    <attribute name="coordinateReferenceSystem" class="java.lang.String">EPSG:32649</attribute>
  </attributes>
  <nodes>
    <node id="9045147853" x="804868.0683207113" y="2500696.525403167">
		</node>
    <node id="1943410625" x="803296.7675054386" y="2500439.7861484415">
		</node>
    <node id="2364346010" x="805244.1476517859" y="2501764.2848959607">
		</node>
    <node id="9045147728" x="804158.8518738167" y="2500573.098693803">
		</node>
    <node id="2364352900" x="804375.4550539085" y="2500747.3980758917">
		</node>
    <node id="6848874089" x="806427.2112792563" y="2500955.040259564">
		</node>
    <node id="9663375584" x="803862.4284017021" y="2501561.6281284345">
		</node>
    <node id="6822264614" x="806393.9435406313" y="2501374.077163668">
		</node>
    <node id="8059520631" x="807565.6153330576" y="2501509.2082471726">
		</node>
    <node id="8520028113" x="807513.9001137342" y="2501503.7917081392">
		</node>
    <node id="6848874204" x="806509.5831087672" y="2501360.140330573">
		</node>
    <node id="8589396472" x="804380.0284444725" y="2501410.981924996">
		</node>
    <node id="9663375565" x="805588.2482182737" y="2501977.525870075">
		</node>
    <node id="9663375587" x="804080.4959195271" y="2501771.944600514">
		</node>
    <node id="9045147602" x="805808.6069013036" y="2500917.7761443965">
		</node>
    <node id="6778993981" x="804975.6211732184" y="2501736.368721822">
		</node>
    <node id="9657680413" x="807914.8277228194" y="2501781.6552073834">
		</node>
    <node id="6778993979" x="804977.3485659463" y="2501761.7862345832">
		</node>
    <node id="9007446827" x="807119.8605394915" y="2501778.6319919694">
		</node>
    <node id="6848874096" x="806366.415496733" y="2501045.404465112">
		</node>
    <node id="1943410930" x="806744.030634938" y="2501055.7965677953">
		</node>
    <node id="9196855352" x="808175.0618705482" y="2501684.654658185">
		</node>
    <node id="6848874098" x="806337.9413871438" y="2501089.3614574717">
		</node>
    <node id="9045147824" x="804280.6991982814" y="2501117.4707018947">
		</node>
    <node id="2364215062" x="806413.8351954158" y="2501306.3498348426">
		</node>
    <node id="9007446622" x="807957.639996839" y="2501693.8388306457">
		</node>
    <node id="9663375564" x="805587.7737642239" y="2501984.7988523324">
		</node>
    <node id="5232900537" x="803571.5713392873" y="2500450.147825604">
		</node>
    <node id="9045147572" x="806106.4914333089" y="2501500.6906453925">
		</node>
    <node id="2364352929" x="804320.6623743543" y="2500955.935381479">
		</node>
    <node id="7124293646" x="804154.9887151896" y="2500739.230161645">
		</node>
    <node id="9045147711" x="804383.1129343663" y="2500646.8607555795">
		</node>
    <node id="9045147887" x="805398.2354898956" y="2500793.4281985485">
		</node>
    <node id="9196855379" x="807547.8656011736" y="2501412.039191828">
		</node>
    <node id="6848874090" x="806308.2598574401" y="2501134.5136359893">
		</node>
    <node id="6822264616" x="806306.9591609691" y="2501273.7194748945">
		</node>
    <node id="9045147560" x="806594.4921310057" y="2501556.9151022136">
		</node>
    <node id="5189735881" x="808431.7612164961" y="2502072.663289871">
		</node>
    <node id="9045147662" x="806191.6979066995" y="2500921.0253533754">
		</node>
    <node id="8589359678" x="804263.3949973811" y="2501744.673470123">
		</node>
    <node id="9045147933" x="805545.0780331235" y="2500878.4793304787">
		</node>
    <node id="9045147935" x="805551.6348796384" y="2500881.048627809">
		</node>
    <node id="6848874127" x="806693.0567306951" y="2501336.2115248647">
		</node>
    <node id="8632219374" x="804034.7242124605" y="2501110.792428467">
		</node>
    <node id="9196855395" x="808413.2542646235" y="2502033.8711416256">
		</node>
    <node id="9045147827" x="804289.9884869726" y="2501117.721678205">
		</node>
    <node id="9045147754" x="804383.9460070583" y="2500749.506463074">
		</node>
    <node id="9204755974" x="803331.4781505421" y="2500447.456061221">
		</node>
    <node id="9045147854" x="804868.5095953194" y="2500688.830587927">
		</node>
    <node id="9007446734" x="807907.1614140661" y="2501801.5421043495">
		</node>
    <node id="9007446717" x="808696.7461639647" y="2502291.9807639755">
		</node>
    <node id="9007433116" x="808791.5956791182" y="2502296.2982655973">
		</node>
    <node id="2364215010" x="806277.9531931494" y="2501180.0523952404">
		</node>
    <node id="9045147837" x="804512.5221709406" y="2501122.07602954">
		</node>
    <node id="9196855354" x="807984.3684417491" y="2501601.764119032">
		</node>
    <node id="2317023661" x="803468.4907487237" y="2500974.937200311">
		</node>
    <node id="8589395964" x="803888.3358187607" y="2501583.856013656">
		</node>
    <node id="9663375560" x="805001.8919860001" y="2501806.944767738">
		</node>
    <node id="9007446744" x="808200.4687933857" y="2502003.1289899787">
		</node>
    <node id="9045147542" x="805390.2195631476" y="2501579.8150048503">
		</node>
    <node id="2317023646" x="803331.0854488657" y="2500965.488562743">
		</node>
    <node id="9045147727" x="804165.3368135144" y="2500575.1560485996">
		</node>
    <node id="9657680409" x="807886.7724822625" y="2501788.7064315216">
		</node>
    <node id="6848874126" x="806514.6890458759" y="2501211.411210646">
		</node>
    <node id="8589396398" x="804506.2558503067" y="2501903.8922771956">
		</node>
    <node id="9007446651" x="808080.9387071163" y="2501928.596581213">
		</node>
    <node id="2364352876" x="804488.9392114438" y="2500883.4063185826">
		</node>
    <node id="5189735918" x="808332.8932283053" y="2501876.7686357484">
		</node>
    <node id="9196855369" x="807815.1723147447" y="2501528.2201676494">
		</node>
    <node id="6778993980" x="804987.0108106723" y="2501757.245594828">
		</node>
    <node id="9007446610" x="807738.3028732992" y="2501730.2556891046">
		</node>
    <node id="9045147443" x="806162.7131242784" y="2501116.7738089324">
		</node>
    <node id="6848874097" x="806266.9714097804" y="2500976.0896226256">
		</node>
    <node id="8059520624" x="807813.2441464656" y="2501641.089250145">
		</node>
    <node id="5178285422" x="805080.2306992322" y="2501715.263293881">
		</node>
    <node id="9007446731" x="807911.3378581705" y="2501814.9719380136">
		</node>
    <node id="8632219383" x="804032.3974983916" y="2501105.1154722604">
		</node>
    <node id="5212834678" x="805680.2906699434" y="2501649.546085598">
		</node>
    <node id="9007446953" x="807994.3043986766" y="2501600.5672097355">
		</node>
    <node id="5232900532" x="803674.8752196538" y="2500469.7404855606">
		</node>
    <node id="6848874086" x="806122.8803406965" y="2501388.7548994175">
		</node>
    <node id="9045147729" x="804159.9352218986" y="2500581.2671070066">
		</node>
    <node id="2364352869" x="804788.0900726514" y="2500703.3365281573">
		</node>
    <node id="6848874195" x="806716.2983520376" y="2501202.498950091">
		</node>
    <node id="6848874124" x="806544.7728067597" y="2501309.2682728">
		</node>
    <node id="8589396471" x="804279.8213513078" y="2501402.152430849">
		</node>
    <node id="1943410646" x="803896.583174493" y="2500521.8633881835">
		</node>
    <node id="8589396407" x="804134.8147616822" y="2501850.3910484402">
		</node>
    <node id="9204756035" x="803698.9287498071" y="2500461.4938186677">
		</node>
    <node id="2317014024" x="807204.0747121243" y="2501759.603609288">
		</node>
    <node id="9007446733" x="807903.8392154807" y="2501810.1324154995">
		</node>
    <node id="9045147571" x="806105.4901636868" y="2501507.5319076963">
		</node>
    <node id="6848874137" x="806961.9539524841" y="2501229.432213482">
		</node>
    <node id="6848874099" x="806247.0975029811" y="2501021.8369791876">
		</node>
    <node id="6848874125" x="806663.9428385446" y="2501391.017980288">
		</node>
    <node id="1943410633" x="803279.6464202427" y="2500439.458449018">
		</node>
    <node id="9007446795" x="807458.846298344" y="2501772.4187880196">
		</node>
    <node id="8589396400" x="804506.2153147898" y="2501897.1300550355">
		</node>
    <node id="9663375585" x="803857.6172190835" y="2501567.0526424986">
		</node>
    <node id="2364346029" x="805380.7186727708" y="2501699.647177675">
		</node>
    <node id="6359958744" x="805292.6407727532" y="2501305.8599539557">
		</node>
    <node id="9196855377" x="807550.1070657026" y="2501407.02961782">
		</node>
    <node id="5176854897" x="805209.9249310181" y="2501264.2196721956">
		</node>
    <node id="9663375562" x="805009.1589152279" y="2501811.567534973">
		</node>
    <node id="2364346027" x="805904.8691926375" y="2501835.7581070797">
		</node>
    <node id="9045147934" x="805547.9159245531" y="2500872.9493882693">
		</node>
    <node id="5232900535" x="803438.2642808721" y="2500464.8104992695">
		</node>
    <node id="9045147663" x="806184.3192278176" y="2500920.9555134336">
		</node>
    <node id="8589359675" x="804270.0405643637" y="2501438.059613821">
		</node>
    <node id="8597495824" x="808582.8971889925" y="2502107.8420074587">
		</node>
    <node id="6848874114" x="806362.0625469061" y="2501214.2113435655">
		</node>
    <node id="9007446971" x="808498.9723696951" y="2501914.1757625276">
		</node>
    <node id="9007447075" x="806937.894383155" y="2501800.96695777">
		</node>
    <node id="6848874104" x="806270.0628031935" y="2501164.908499784">
		</node>
    <node id="5189735886" x="808549.0385586156" y="2502164.8889451358">
		</node>
    <node id="9045147890" x="804853.7694216858" y="2500904.6259404975">
		</node>
    <node id="6848874123" x="806478.9577009047" y="2501256.9408819037">
		</node>
    <node id="9663375556" x="805053.3380662694" y="2501793.7590833683">
		</node>
    <node id="2364241994" x="804943.2853010751" y="2501543.378642099">
		</node>
    <node id="9045147870" x="805390.2181367681" y="2500788.7349271057">
		</node>
    <node id="5232900530" x="803691.0354216602" y="2500483.239776558">
		</node>
    <node id="5999843920" x="803315.1296352181" y="2500569.8451864654">
		</node>
    <node id="6848874130" x="806480.201770342" y="2501402.6268378957">
		</node>
    <node id="9007446582" x="806932.5602798236" y="2501800.582964214">
		</node>
    <node id="8589396425" x="804279.589627783" y="2501409.6740411343">
		</node>
    <node id="9007446920" x="806740.5293484445" y="2501692.3425715654">
		</node>
    <node id="8520028110" x="807620.9740378356" y="2501702.748193111">
		</node>
    <node id="8597463662" x="804846.4339382545" y="2500901.354238259">
		</node>
    <node id="5999843911" x="803287.2206060424" y="2500543.0456109764">
		</node>
    <node id="8059520626" x="807764.6157234381" y="2501619.8606644897">
		</node>
    <node id="1943410874" x="806211.6629911319" y="2500921.1915138783">
		</node>
    <node id="9204755983" x="803715.5101464813" y="2500455.814747254">
		</node>
    <node id="9007446959" x="808508.1561367925" y="2501915.059062468">
		</node>
    <node id="2364352872" x="804852.8208265114" y="2500803.296496093">
		</node>
    <node id="9045147599" x="805912.3113961373" y="2501866.122876709">
		</node>
    <node id="9007446747" x="808184.5055113288" y="2502005.157739799">
		</node>
    <node id="8632219414" x="803844.7928996227" y="2500460.904292098">
		</node>
    <node id="2364346052" x="804942.8716775852" y="2501557.4364193743">
		</node>
    <node id="2317023662" x="803710.388407582" y="2500681.032722593">
		</node>
    <node id="6822264621" x="806460.4720795997" y="2501374.254968704">
		</node>
    <node id="6848874415" x="806094.9617947747" y="2501531.696230231">
		</node>
    <node id="5240883425" x="806936.2846464464" y="2501437.4621149832">
		</node>
    <node id="6848874171" x="806498.671255518" y="2501045.3114153547">
		</node>
    <node id="4526106513" x="804947.6030598767" y="2501425.737960163">
		</node>
    <node id="6848874091" x="806221.2636367602" y="2501080.9993493147">
		</node>
    <node id="9045147661" x="806185.1720476237" y="2500915.3638270213">
		</node>
    <node id="9045147763" x="804406.909260006" y="2500661.9424414425">
		</node>
    <node id="9045147751" x="804398.603512772" y="2500659.3167662034">
		</node>
    <node id="2364241983" x="804945.8675863591" y="2501464.3212065203">
		</node>
    <node id="9007446539" x="807119.5520224823" y="2501771.4319380475">
		</node>
    <node id="9007446921" x="806668.124805623" y="2501634.0738159716">
		</node>
    <node id="8146401370" x="805373.6707565776" y="2501728.95785322">
		</node>
    <node id="6822264618" x="806356.2046858699" y="2501329.583216951">
		</node>
    <node id="9007446952" x="807986.3969171636" y="2501597.116102467">
		</node>
    <node id="2317023644" x="803641.1171010858" y="2500851.9527475974">
		</node>
    <node id="8632225619" x="803894.2716939542" y="2500499.316611345">
		</node>
    <node id="9007433107" x="808519.8041826184" y="2502242.2364641065">
		</node>
    <node id="9045147545" x="805707.4526226632" y="2501530.9086111784">
		</node>
    <node id="6848874172" x="806587.2689381859" y="2501109.3009953676">
		</node>
    <node id="6848874257" x="804398.9609742763" y="2501114.4104946703">
		</node>
    <node id="6388555283" x="803607.8571934549" y="2500471.305778018">
		</node>
    <node id="9007446769" x="808763.5468059429" y="2502259.6520137805">
		</node>
    <node id="9045147818" x="804049.204649146" y="2501141.4616406322">
		</node>
    <node id="9045147936" x="805554.5761037548" y="2500875.4985781317">
		</node>
    <node id="9045147500" x="806074.3190579466" y="2501506.2440588837">
		</node>
    <node id="3810873459" x="806089.9439338925" y="2501598.933941024">
		</node>
    <node id="5999843902" x="803300.0363389924" y="2500489.94011154">
		</node>
    <node id="5999843916" x="803300.2983029804" y="2500744.5593813853">
		</node>
    <node id="6848874202" x="806680.1358631037" y="2501470.0752739073">
		</node>
    <node id="9045147826" x="804281.4889718473" y="2501111.39004462">
		</node>
    <node id="8068871016" x="803431.7049690438" y="2500475.343608416">
		</node>
    <node id="5240883389" x="806670.7119466036" y="2501627.7187671275">
		</node>
    <node id="1943410623" x="803736.2037194786" y="2500456.623845387">
		</node>
    <node id="5178285424" x="805116.1078913143" y="2501736.0294308155">
		</node>
    <node id="6848874120" x="806484.7323466128" y="2501030.500874969">
		</node>
    <node id="9007446743" x="808186.0843306364" y="2502015.6977560525">
		</node>
    <node id="8589396469" x="804271.184806895" y="2501401.6927157124">
		</node>
    <node id="6848874116" x="806422.8267299554" y="2501122.8267925736">
		</node>
    <node id="6848874146" x="806760.4443788229" y="2501347.991106281">
		</node>
    <node id="9007446810" x="807447.2021602346" y="2501773.094017382">
		</node>
    <node id="3810877451" x="804991.7869363826" y="2501766.008636864">
		</node>
    <node id="9196855390" x="806743.9116991308" y="2501062.766334829">
		</node>
    <node id="6848874117" x="806381.7552232891" y="2501023.619837467">
		</node>
    <node id="2317023660" x="803386.0531855996" y="2500732.844956355">
		</node>
    <node id="9007446964" x="808504.129572951" y="2501910.05636647">
		</node>
    <node id="6848874201" x="806486.8962085708" y="2501191.9673114102">
		</node>
    <node id="9007446970" x="808503.0508220247" y="2501919.157332813">
		</node>
    <node id="9007446718" x="808706.0639279062" y="2502293.864539506">
		</node>
    <node id="2364241988" x="805381.8609412347" y="2501684.6838784823">
		</node>
    <node id="5212834679" x="805656.7369451248" y="2501587.358187091">
		</node>
    <node id="9045147889" x="804854.3980309421" y="2500897.344970721">
		</node>
    <node id="9007446647" x="808057.7242606068" y="2501911.4362223954">
		</node>
    <node id="9045147834" x="804398.8158140064" y="2501120.681306258">
		</node>
    <node id="9007446585" x="806938.7526614588" y="2501794.089580481">
		</node>
    <node id="9045147825" x="804290.7375499185" y="2501111.6180439354">
		</node>
    <node id="5193738529" x="807315.0595141524" y="2501770.874741944">
		</node>
    <node id="9045147570" x="806099.5285628088" y="2501500.4295964628">
		</node>
    <node id="6359958745" x="805331.1678485442" y="2501324.8836259">
		</node>
    <node id="5240883427" x="806736.4084364001" y="2501696.6495205993">
		</node>
    <node id="9045147803" x="804512.6885552078" y="2501116.2933427873">
		</node>
    <node id="5232900529" x="803440.8233418725" y="2500542.4724881733">
		</node>
    <node id="8589359676" x="804278.7331512104" y="2501438.2876746766">
		</node>
    <node id="9663375583" x="803883.5456477181" y="2501589.258768414">
		</node>
    <node id="1678156747" x="804268.0157315003" y="2501494.925989068">
		</node>
    <node id="2364241985" x="804943.7389853825" y="2501527.8252783357">
		</node>
    <node id="6848874129" x="806728.3241733487" y="2501284.576524223">
		</node>
    <node id="2364352874" x="804519.2109025491" y="2500807.7591072638">
		</node>
    <node id="1943410804" x="803318.520507334" y="2500772.9629448857">
		</node>
    <node id="5178285425" x="805088.1626685367" y="2501722.670425683">
		</node>
    <node id="9196855376" x="807788.367208122" y="2501516.574845447">
		</node>
    <node id="6848874119" x="806410.2089573434" y="2500980.6933438713">
		</node>
    <node id="8589396342" x="804257.8890945566" y="2501845.1759682675">
		</node>
    <node id="9007446875" x="807112.8012754486" y="2501772.914937402">
		</node>
    <node id="9007446758" x="808796.8615777241" y="2502303.121778701">
		</node>
    <node id="9196855351" x="808177.0251025583" y="2501680.1827017">
		</node>
    <node id="9045147431" x="805860.3450417281" y="2501894.4921092708">
		</node>
    <node id="8520028109" x="807629.3222326429" y="2501754.470275635">
		</node>
    <node id="8632225683" x="803887.7019620097" y="2500462.5973792463">
		</node>
    <node id="9007446820" x="807413.7932726005" y="2501774.5961032044">
		</node>
    <node id="6848874128" x="806552.7316544409" y="2501157.8915896737">
		</node>
    <node id="9045147544" x="805710.0153112703" y="2501537.621474468">
		</node>
    <node id="9007446732" x="807914.5321450236" y="2501806.600749273">
		</node>
    <node id="9045147649" x="804381.3887058895" y="2500653.8650157806">
		</node>
    <node id="1943411105" x="805228.2099775835" y="2501527.438250506">
		</node>
    <node id="9007433088" x="807725.1415474454" y="2501749.0678984947">
		</node>
    <node id="9196855353" x="807992.2864323414" y="2501605.204352195">
		</node>
    <node id="9045147556" x="806587.0130618569" y="2501569.5901791374">
		</node>
    <node id="5999843922" x="803303.4957093376" y="2500542.9464792684">
		</node>
    <node id="9007446621" x="807949.5064792796" y="2501690.8820005795">
		</node>
    <node id="9196855350" x="808396.8002029792" y="2501799.0436239927">
		</node>
    <node id="6848874262" x="804386.7935292644" y="2501413.942818705">
		</node>
    <node id="6848874170" x="806462.4687443231" y="2501092.7715187217">
		</node>
    <node id="6433492060" x="804181.3236460784" y="2501854.6065812185">
		</node>
    <node id="8589359677" x="804277.0799868254" y="2501495.0949293575">
		</node>
    <node id="9045147656" x="803905.7970779592" y="2500524.8947251453">
		</node>
    <node id="5218169820" x="808796.8527883743" y="2502320.402673999">
		</node>
    <node id="2364346096" x="804723.9463376016" y="2501922.4758858713">
		</node>
    <node id="5189736125" x="808142.2233412908" y="2501759.6024320037">
		</node>
    <node id="9663375561" x="805011.3749604998" y="2501803.653106475">
		</node>
    <node id="9045147490" x="806603.702678384" y="2501586.29597923">
		</node>
    <node id="5923932397" x="805189.7580241617" y="2501508.283264153">
		</node>
    <node id="5193738958" x="805685.9648458298" y="2501663.8362580133">
		</node>
    <node id="8589396340" x="804250.3963233564" y="2501844.6613600375">
		</node>
    <node id="6822264617" x="806174.5636260748" y="2501466.336828302">
		</node>
    <node id="3810877452" x="804982.4706643478" y="2501771.2655586554">
		</node>
    <node id="8589396426" x="804270.9646963365" y="2501409.148050634">
		</node>
    <node id="6848874118" x="806456.295835793" y="2501073.0728907995">
		</node>
    <node id="9045147543" x="805389.3999618017" y="2501587.369291705">
		</node>
    <node id="2364241998" x="805386.02099003" y="2501620.56613023">
		</node>
    <node id="2364346034" x="804637.1138361315" y="2501891.818647797">
		</node>
    <node id="6265111436" x="808078.0979320012" y="2501906.081965288">
		</node>
    <node id="2364352904" x="804362.4528533143" y="2500831.4688871745">
		</node>
    <node id="9663375559" x="805090.4428742221" y="2501790.086481406">
		</node>
    <node id="6822264620" x="806326.0139891908" y="2501472.8004414807">
		</node>
    <node id="2364241987" x="805339.5356464005" y="2501807.209203871">
		</node>
    <node id="9663375606" x="804177.3647893746" y="2501847.168019961">
		</node>
    <node id="9196855381" x="807270.7427685922" y="2501291.931074191">
		</node>
    <node id="6822264615" x="806417.3504487814" y="2501402.832839459">
		</node>
    <node id="2456755022" x="803823.8217347612" y="2500460.0784596237">
		</node>
    <node id="8632225692" x="803897.4933678161" y="2500462.9799458073">
		</node>
    <node id="5193738957" x="805647.1480456697" y="2501561.8944503344">
		</node>
    <node id="9045147851" x="804859.7407585059" y="2500697.069143387">
		</node>
    <node id="6848874122" x="806622.9394796349" y="2501059.1258784854">
		</node>
    <node id="9045147822" x="804074.2266807437" y="2501111.864479426">
		</node>
    <node id="6822264611" x="806259.2871391487" y="2501222.021894284">
		</node>
    <node id="9045147852" x="804860.2442033583" y="2500689.353396553">
		</node>
    <node id="9007446797" x="807453.8828465821" y="2501764.8481629253">
		</node>
    <node id="5193738526" x="807351.200790002" y="2501772.719380422">
		</node>
    <node id="9663375581" x="803532.6396306155" y="2501287.473770883">
		</node>
    <node id="9007433090" x="807754.2166998689" y="2501749.6519939736">
		</node>
    <node id="9007446517" x="808797.5864834826" y="2502294.734180233">
		</node>
    <node id="9007446876" x="807110.8598206844" y="2501780.424587517">
		</node>
    <node id="1943411060" x="804503.8217752483" y="2501416.911232216">
		</node>
    <node id="6359958702" x="804640.6603855675" y="2501420.0195049224">
		</node>
    <node id="9045147603" x="805798.6527265701" y="2500911.1152969627">
		</node>
    <node id="9007446655" x="808517.1816591483" y="2502249.2889198735">
		</node>
    <node id="9045147664" x="806192.6019522937" y="2500915.445774986">
		</node>
    <node id="9045147764" x="804408.735949263" y="2500654.9623862174">
		</node>
    <node id="8338346397" x="806097.0720379225" y="2501599.165039862">
		</node>
    <node id="9045147491" x="806607.3644079664" y="2501580.760512378">
		</node>
    <node id="9045147554" x="806609.6959251184" y="2501590.262245419">
		</node>
    <node id="8534749410" x="807791.2142383754" y="2501547.0038628643">
		</node>
    <node id="9045147752" x="804400.4301982479" y="2500652.336710409">
		</node>
    <node id="9045147898" x="805401.0902917881" y="2500788.596886606">
		</node>
    <node id="6822264619" x="806267.9461860633" y="2501458.737205443">
		</node>
    <node id="2364352895" x="804546.64771583" y="2500733.8955773446">
		</node>
    <node id="9007446751" x="808199.8094063741" y="2502016.4616442015">
		</node>
    <node id="2364352926" x="804440.212346632" y="2501005.185404375">
		</node>
    <node id="5999843906" x="803281.7725709407" y="2500475.058469915">
		</node>
    <node id="8597495826" x="806895.2026823857" y="2501423.2601221236">
		</node>
    <node id="2317023667" x="803471.9730420798" y="2500697.7355729234">
		</node>
    <node id="9045147550" x="806074.5672616996" y="2501499.4875112846">
		</node>
    <node id="9196855317" x="808393.0491741777" y="2501803.3576359926">
		</node>
    <node id="9045147708" x="803905.178862314" y="2500518.6974772895">
		</node>
    <node id="9045147569" x="806098.5380275934" y="2501507.248904394">
		</node>
    <node id="1678156788" x="804251.9008010139" y="2501852.8603451247">
		</node>
    <node id="9007446774" x="808739.1657938154" y="2502292.2483599754">
		</node>
    <node id="5240883420" x="807264.38358961" y="2501509.448722364">
		</node>
    <node id="9045147444" x="806156.0114180917" y="2501113.7357821483">
		</node>
    <node id="2364352913" x="804507.7623390588" y="2501060.674297511">
		</node>
    <node id="4526106501" x="806101.9020814206" y="2501532.0565877394">
		</node>
    <node id="1943410806" x="803302.1605451786" y="2500777.881956249">
		</node>
    <node id="9045147807" x="804025.5189595193" y="2501108.3818497634">
		</node>
    <node id="9045147765" x="804328.8649669711" y="2500959.6009071525">
		</node>
    <node id="9045147888" x="805393.0017973757" y="2500783.85785881">
		</node>
    <node id="5240883417" x="806805.8962469592" y="2501624.0408609016">
		</node>
    <node id="5173029515" x="806785.3886911492" y="2501742.9992426476">
		</node>
    <node id="6778993978" x="804966.2014266892" y="2501741.1358842896">
		</node>
    <node id="9204756034" x="803426.3364077797" y="2500461.60380604">
		</node>
    <node id="9007446609" x="807559.6410623692" y="2501758.591219835">
		</node>
    <node id="9663375740" x="804120.9600362291" y="2501827.138316397">
		</node>
    <node id="9007446742" x="808752.6826953515" y="2502303.3284491897">
		</node>
    <node id="9663375563" x="805318.6975812896" y="2501849.3578185607">
		</node>
    <node id="6848874115" x="806348.1732206461" y="2501073.8815079466">
		</node>
    <node id="6848874198" x="806707.4245896253" y="2501315.1725664437">
		</node>
  </nodes>
  <links capperiod="01:00:00" effectivecellsize="7.5" effectivelanewidth="3.75">
    <link id="10296469300003f" from="7124293646" to="9045147729" length="158.37902991155323" freespeed="4.166666666666667" capacity="600.0" permlanes="1.0" oneway="1" modes="car">
      <attributes>
        <attribute name="allowed_speed" class="java.lang.Double">4.166666666666667</attribute>
        <attribute name="origid" class="java.lang.Long">1029646930</attribute>
        <attribute name="type" class="java.lang.String">residential</attribute>
      </attributes>
    </link>
    <link id="10296469300003r" from="9045147729" to="7124293646" length="158.37902991155323" freespeed="4.166666666666667" capacity="600.0" permlanes="1.0" oneway="1" modes="car">
      <attributes>
        <attribute name="allowed_speed" class="java.lang.Double">4.166666666666667</attribute>
        <attribute name="origid" class="java.lang.Long">1029646930</attribute>
        <attribute name="type" class="java.lang.String">residential</attribute>
      </attributes>
    </link>
    <link id="10507652790000f" from="9204755983" to="9204756035" length="17.526966873729208" freespeed="3.1023721623307727" capacity="1600.0" permlanes="1.0" oneway="1" modes="car">
      <attributes>
        <attribute name="allowed_speed" class="java.lang.Double">3.1023721623307727</attribute>
        <attribute name="origid" class="java.lang.Long">1050765279</attribute>
        <attribute name="storageCapacityUsedInQsim" class="java.lang.Double">2.5109054128239756</attribute>
        <attribute name="type" class="java.lang.String">secondary</attribute>
      </attributes>
    </link>
    <link id="10507652790001f" from="9204756035" to="5232900532" length="25.427934003277958" freespeed="3.2486857831767026" capacity="1600.0" permlanes="1.0" oneway="1" modes="car">
      <attributes>
        <attribute name="allowed_speed" class="java.lang.Double">3.2486857831767026</attribute>
        <attribute name="origid" class="java.lang.Long">1050765279</attribute>
        <attribute name="storageCapacityUsedInQsim" class="java.lang.Double">3.478731017933651</attribute>
        <attribute name="type" class="java.lang.String">secondary</attribute>
      </attributes>
    </link>
    <link id="10507652790004f" from="5232900532" to="6388555283" length="67.31311865783977" freespeed="4.024334248247502" capacity="800.0" permlanes="1.0" oneway="1" modes="car">
      <attributes>
        <attribute name="allowed_speed" class="java.lang.Double">4.024334248247502</attribute>
        <attribute name="origid" class="java.lang.Long">1050765279</attribute>
        <attribute name="type" class="java.lang.String">secondary</attribute>
      </attributes>
    </link>
    <link id="10507652800000f" from="9204755983" to="5232900537" length="144.0503183523757" freespeed="12.114384037630401" capacity="1500.0" permlanes="1.0" oneway="1" modes="car">
      <attributes>
        <attribute name="allowed_speed" class="java.lang.Double">12.114384037630401</attribute>
        <attribute name="origid" class="java.lang.Long">1050765280</attribute>
        <attribute name="type" class="java.lang.String">primary</attribute>
      </attributes>
    </link>
    <link id="10507652810000f" from="1943410623" to="9204755983" length="20.709384423019618" freespeed="4.120073382278351" capacity="3000.0" permlanes="1.0" oneway="1" modes="car">
      <attributes>
        <attribute name="allowed_speed" class="java.lang.Double">4.120073382278351</attribute>
        <attribute name="origid" class="java.lang.Long">1050765281</attribute>
        <attribute name="storageCapacityUsedInQsim" class="java.lang.Double">4.188716741489925</attribute>
        <attribute name="type" class="java.lang.String">primary</attribute>
      </attributes>
    </link>
    <link id="10507652820000f" from="8632225692" to="8632225683" length="9.798876713167928" freespeed="3.412911653714461" capacity="12000.0" permlanes="4.0" oneway="1" modes="car">
      <attributes>
        <attribute name="allowed_speed" class="java.lang.Double">3.412911653714461</attribute>